! RHF 6-311+G* 

%pal	nprocs	12
	end

%basis

 NewGTO H
 S 3
   1      33.8650000000      0.0254938145
   2       5.0947900000      0.1903731086
   3       1.1587900000      0.8521614860
 S 1
   1       0.3258400000      1.0000000000
 S 1
   1       0.1027410000      1.0000000000
  end

 # Basis set for element : C
 NewGTO C
 S 6
   1    4563.2400000000      0.0019666502
   2     682.0240000000      0.0152306019
   3     154.9730000000      0.0761269097
   4      44.4553000000      0.2608010331
   5      13.0290000000      0.6164620782
   6       1.8277300000      0.2210060280
 S 3
   1      20.9642000000      0.1146600807
   2       4.8033100000      0.9199996477
   3       1.4593300000     -0.0030306821
 P 3
   1      20.9642000000      0.0402486927
   2       4.8033100000      0.2375939567
   3       1.4593300000      0.8158538515
 S 1
   1       0.4834560000      1.0000000000
 P 1
   1       0.4834560000      1.0000000000
 S 1
   1       0.1455850000      1.0000000000
 P 1
   1       0.1455850000      1.0000000000
 S 1
   1       0.0438000000      1.0000000000
 P 1
   1       0.0438000000      1.0000000000
  end

 # Basis set for element : O
 NewGTO O
 S 6
   1    8588.5000000000      0.0018951501
   2    1297.2300000000      0.0143859006
   3     299.2960000000      0.0707320031
   4      87.3771000000      0.2400010105
   5      25.6789000000      0.5947970261
   6       3.7400400000      0.2808020123
 S 3
   1      42.1175000000      0.1138890124
   2       9.6283700000      0.9208111006
   3       2.8533200000     -0.0032744704
 P 3
   1      42.1175000000      0.0365113974
   2       9.6283700000      0.2371529830
   3       2.8533200000      0.8197019412
 S 1
   1       0.9056610000      1.0000000000
 P 1
   1       0.9056610000      1.0000000000
 S 1
   1       0.2556110000      1.0000000000
 P 1
   1       0.2556110000      1.0000000000
 S 1
   1       0.0845000000      1.0000000000
 P 1
   1       0.0845000000      1.0000000000
  end
end

%nbo
NBOKEYLIST="$NBO CMO AONAO=W NAOMO=W PLOT $end"
end

* xyzfile 0 1 init.xyz
